#======================================================================

# CRYSTAL DATA

#----------------------------------------------------------------------

data_VESTA_phase_1


_pd_phase_name                         ''
_cell_length_a                         9.89922
_cell_length_b                         5.90687
_cell_length_c                         4.88388
_cell_angle_alpha                      90.00055
_cell_angle_beta                       89.99911
_cell_angle_gamma                      90.03049
_symmetry_space_group_name_H-M         'P 1'
_symmetry_Int_Tables_number            1

loop_
_symmetry_equiv_pos_as_xyz
   'x, y, z'

loop_
   _atom_site_label
   _atom_site_occupancy
   _atom_site_fract_x
   _atom_site_fract_y
   _atom_site_fract_z
   _atom_site_adp_type
   _atom_site_B_iso_or_equiv
   _atom_site_type_symbol
   Fe-1     1.0    0.22817      0.75009      0.47161     Biso  1.000  Fe
   Fe-2     1.0    0.27182      0.24990      0.97160     Biso  1.000  Fe
   Fe-3     1.0    0.72818      0.75008      0.02840     Biso  1.000  Fe
   Fe-4     1.0    0.77182      0.24991      0.52840     Biso  1.000  Fe
   O-5      1.0    0.05333      0.74982      0.65101     Biso  1.000  O
   O-6      1.0    0.11719      0.24967      0.73096     Biso  1.000  O
   O-7      1.0    0.17229      0.04717      0.27517     Biso  1.000  O
   O-8      1.0    0.17284      0.45234      0.27568     Biso  1.000  O
   O-9      1.0    0.32717      0.54765      0.77567     Biso  1.000  O
   O-10     1.0    0.32770      0.95282      0.77516     Biso  1.000  O
   O-11     1.0    0.38281      0.75034      0.23097     Biso  1.000  O
   O-12     1.0    0.44666      0.25019      0.15101     Biso  1.000  O
   O-13     1.0    0.55330      0.74981      0.84899     Biso  1.000  O
   O-14     1.0    0.61718      0.24964      0.76907     Biso  1.000  O
   O-15     1.0    0.67229      0.04717      0.22483     Biso  1.000  O
   O-16     1.0    0.67283      0.45233      0.22430     Biso  1.000  O
   O-17     1.0    0.82717      0.54768      0.72432     Biso  1.000  O
   O-18     1.0    0.82772      0.95284      0.72484     Biso  1.000  O
   O-19     1.0    0.88281      0.75036      0.26906     Biso  1.000  O
   O-20     1.0    0.94671      0.25020      0.34899     Biso  1.000  O
   P-21     1.0    0.09641      0.24989      0.42089     Biso  1.000  P
   P-22     1.0    0.40359      0.75010      0.92086     Biso  1.000  P
   P-23     1.0    0.59645      0.24987      0.07910     Biso  1.000  P
   P-24     1.0    0.90355      0.75013      0.57912     Biso  1.000  P
