#\#CIF1.1
##########################################################################
#               Crystallographic Information Format file 
#               Produced by PyCifRW module
# 
#  This is a CIF file.  CIF has been adopted by the International
#  Union of Crystallography as the standard for data archiving and 
#  transmission.
#
#  For information on this file format, follow the CIF links at
#  http://www.iucr.org
##########################################################################

data_Li3GaPCO7
_symmetry_space_group_name_H-M          'P 1'
_cell_length_a                          8.55687882183
_cell_length_b                          5.06607053837
_cell_length_c                          6.63383306
_cell_angle_alpha                       90.0
_cell_angle_beta                        90.0
_cell_angle_gamma                       89.901177212
_chemical_name_systematic               'Generated by pymatgen'
_symmetry_Int_Tables_number             1
_chemical_formula_structural            Li3GaPCO7
_chemical_formula_sum                   'Li6 Ga2 P2 C2 O14'
_cell_volume                            287.574588218
_cell_formula_units_Z                   2
loop_
  _symmetry_equiv_pos_site_id
  _symmetry_equiv_pos_as_xyz
   1  'x, y, z'
 
loop_
  _atom_site_type_symbol
  _atom_site_label
  _atom_site_symmetry_multiplicity
  _atom_site_fract_x
  _atom_site_fract_y
  _atom_site_fract_z
  _atom_site_attached_hydrogens
  _atom_site_B_iso_or_equiv
  _atom_site_occupancy
   C  C1  1  0.132588  0.486225  0.737311  0  .  1
   C  C2  1  0.867412  0.513775  0.237311  0  .  1
   Ga  Ga3  1  0.294538  0.994643  0.746042  0  .  1
   Ga  Ga4  1  0.705462  0.005357  0.246042  0  .  1
   Li  Li5  1  0.001212  0.021926  0.497565  0  .  1
   Li  Li6  1  0.171430  0.484104  0.179940  0  .  1
   Li  Li7  1  0.507079  0.452176  0.471065  0  .  1
   Li  Li8  1  0.492921  0.547824  0.971065  0  .  1
   Li  Li9  1  0.828570  0.515896  0.679940  0  .  1
   Li  Li10  1  0.998788  0.978074  0.997565  0  .  1
   O  O11  1  0.025197  0.309808  0.717750  0  .  1
   O  O12  1  0.090729  0.729409  0.778340  0  .  1
   O  O13  1  0.212698  0.119928  0.082267  0  .  1
   O  O14  1  0.229490  0.993318  0.447749  0  .  1
   O  O15  1  0.280710  0.428526  0.720767  0  .  1
   O  O16  1  0.361590  0.700473  0.187630  0  .  1
   O  O17  1  0.471785  0.161590  0.264340  0  .  1
   O  O18  1  0.528215  0.838410  0.764340  0  .  1
   O  O19  1  0.638410  0.299527  0.687630  0  .  1
   O  O20  1  0.719290  0.571474  0.220767  0  .  1
   O  O21  1  0.770510  0.006682  0.947749  0  .  1
   O  O22  1  0.787302  0.880072  0.582267  0  .  1
   O  O23  1  0.909271  0.270591  0.278340  0  .  1
   O  O24  1  0.974803  0.690192  0.217750  0  .  1
   P  P25  1  0.320472  0.988960  0.243834  0  .  1
   P  P26  1  0.679528  0.011040  0.743834  0  .  1
 
