#======================================================================

# CRYSTAL DATA

#----------------------------------------------------------------------

data_jcmc_phase_1

_chemical_formula_sum 
'Li6.000     O24.000    P6.000     V4.000    '
_cell_length_a    8.67265 
_cell_length_b    8.64068 
_cell_length_c    8.64068 
_cell_angle_alpha   61.34420 
_cell_angle_beta   61.21317 
_cell_angle_gamma   61.21317 
_cell_volume  470.79846 
_cell_formula_units_Z    1 
_symmetry_space_group_name_H-M     'P1' 
_symmetry_Int_Tables_number          1 
loop_
_symmetry_equiv_pos_site_id 
_symmetry_equiv_pos_as_xyz 
  1  'x, y, z' 
loop_ 
_atom_type_symbol 
_atom_type_oxidation_number 
Li      0.0 
O       0.0 
P       0.0 
V       0.0 
loop_ 
_atom_site_label 
_atom_site_type_symbol 
_atom_site_symmetry_multiplicity 
_atom_site_Wyckoff_symbol 
_atom_site_fract_x 
_atom_site_fract_y 
_atom_site_fract_z 
_atom_site_B_iso_or_equiv 
_atom_site_occupancy 
Li-1  Li 1 a   0.03066  0.00674  0.99848 0.0  1.000 
Li-2  Li 1 a   0.46934  0.50152  0.49326 0.0  1.000 
Li-3  Li 1 a   0.25000  0.84417  0.65583 0.0  1.000 
Li-4  Li 1 a   0.75000  0.15079  0.34921 0.0  1.000 
Li-5  Li 1 a   0.65363  0.25477  0.84137 0.0  1.000 
Li-6  Li 1 a   0.84637  0.65863  0.24523 0.0  1.000 
O-7   O 1 a   0.12698  0.28665  0.50094 0.0  1.000 
O-8   O 1 a   0.30272  0.51015  0.11731 0.0  1.000 
O-9   O 1 a   0.04821  0.92261  0.26748 0.0  1.000 
O-10   O 1 a   0.01817  0.80470  0.61236 0.0  1.000 
O-11   O 1 a   0.23835  0.59382  0.42684 0.0  1.000 
O-12   O 1 a   0.52868  0.12131  0.29612 0.0  1.000 
O-13   O 1 a   0.26165  0.07316  0.90618 0.0  1.000 
O-14   O 1 a   0.45179  0.23252  0.57739 0.0  1.000 
O-15   O 1 a   0.19728  0.38269  0.98985 0.0  1.000 
O-16   O 1 a   0.08988  0.73592  0.93388 0.0  1.000 
O-17   O 1 a   0.59467  0.43155  0.24116 0.0  1.000 
O-18   O 1 a   0.37302  0.99906  0.21335 0.0  1.000 
O-19   O 1 a   0.61121  0.01475  0.80657 0.0  1.000 
O-20   O 1 a   0.41012  0.56612  0.76408 0.0  1.000 
O-21   O 1 a   0.90533  0.25884  0.06845 0.0  1.000 
O-22   O 1 a   0.81158  0.60981  0.01305 0.0  1.000 
O-23   O 1 a   0.57118  0.76862  0.41080 0.0  1.000 
O-24   O 1 a   0.73223  0.93269  0.08646 0.0  1.000 
O-25   O 1 a   0.76777  0.41354  0.56731 0.0  1.000 
O-26   O 1 a   0.48183  0.88764  0.69530 0.0  1.000 
O-27   O 1 a   0.97132  0.20388  0.37869 0.0  1.000 
O-28   O 1 a   0.92882  0.08920  0.73138 0.0  1.000 
O-29   O 1 a   0.68842  0.48695  0.89019 0.0  1.000 
O-30   O 1 a   0.88879  0.69343  0.48525 0.0  1.000 
P-31   P 1 a   0.04793  0.75184  0.44972 0.0  1.000 
P-32   P 1 a   0.45207  0.05028  0.74816 0.0  1.000 
P-33   P 1 a   0.25000  0.54264  0.95736 0.0  1.000 
P-34   P 1 a   0.75000  0.45222  0.04778 0.0  1.000 
P-35   P 1 a   0.54424  0.96130  0.25060 0.0  1.000 
P-36   P 1 a   0.95576  0.24940  0.53870 0.0  1.000 
V-37   V 1 a   0.14425  0.14523  0.13794 0.0  1.000 
V-38   V 1 a   0.35575  0.36206  0.35477 0.0  1.000 
V-39   V 1 a   0.64496  0.64557  0.64775 0.0  1.000 
V-40   V 1 a   0.85504  0.85225  0.85443 0.0  1.000 