#\#CIF1.1
##########################################################################
#               Crystallographic Information Format file 
#               Produced by PyCifRW module
# 
#  This is a CIF file.  CIF has been adopted by the International
#  Union of Crystallography as the standard for data archiving and 
#  transmission.
#
#  For information on this file format, follow the CIF links at
#  http://www.iucr.org
##########################################################################

data_LiMn2O4
_symmetry_space_group_name_H-M          'P 1'
_cell_length_a                          6.00605826516
_cell_length_b                          5.82191014076
_cell_length_c                          5.78482437411
_cell_angle_alpha                       90.0554686546
_cell_angle_beta                        61.2530481428
_cell_angle_gamma                       61.0452167621
_chemical_name_systematic               'Generated by pymatgen'
_symmetry_Int_Tables_number             1
_chemical_formula_structural            LiMn2O4
_chemical_formula_sum                   'Li2 Mn4 O8'
_cell_volume                            147.796305823
_cell_formula_units_Z                   2
loop_
  _symmetry_equiv_pos_site_id
  _symmetry_equiv_pos_as_xyz
   1  'x, y, z'
 
loop_
  _atom_site_type_symbol
  _atom_site_symmetry_multiplicity
  _atom_site_fract_x
  _atom_site_fract_y
  _atom_site_fract_z
  _atom_site_attached_hydrogens
  _atom_site_B_iso_or_equiv
  _atom_site_label
  _atom_site_occupancy
   Li  1  0.72509209  0.13743295  0.8874632  0  .  Li1  1
   Li  1  0.27490873  0.86256663  0.11253633  0  .  Li2  1
   Mn  1  0.50000142  0.49999913  0.49999967  0  .  Mn3  1
   Mn  1  0.50000053  8.1e-07  0.50000043  0  .  Mn4  1
   Mn  1  5.5e-07  0.49999936  0.50000057  0  .  Mn5  1
   Mn  1  0.9999999  0.49999995  1e-07  0  .  Mn6  1
   O  1  0.99662517  0.72285875  0.75189229  0  .  O7  1
   O  1  0.99661272  0.28051653  0.75148888  0  .  O8  1
   O  1  0.55280112  0.72365085  0.69958024  0  .  O9  1
   O  1  0.55271836  0.7234885  0.24772086  0  .  O10  1
   O  1  0.44728062  0.2765116  0.7522791  0  .  O11  1
   O  1  0.44719805  0.27635066  0.30041893  0  .  O12  1
   O  1  0.00338691  0.71948383  0.24851169  0  .  O13  1
   O  1  0.00337383  0.27714046  0.24810771  0  .  O14  1
 
