#======================================================================

# CRYSTAL DATA

#----------------------------------------------------------------------

data_VESTA_phase_1


_pd_phase_name                         ''
_cell_length_a                         10.44059
_cell_length_b                         6.28746
_cell_length_c                         4.99550
_cell_angle_alpha                      90
_cell_angle_beta                       89.97269
_cell_angle_gamma                      90
_symmetry_space_group_name_H-M         'P 1'
_symmetry_Int_Tables_number            1

loop_
_symmetry_equiv_pos_as_xyz
   'x, y, z'

loop_
   _atom_site_label
   _atom_site_occupancy
   _atom_site_fract_x
   _atom_site_fract_y
   _atom_site_fract_z
   _atom_site_adp_type
   _atom_site_B_iso_or_equiv
   _atom_site_type_symbol
   Fe-1     1.0    0.21407      0.75000      0.47646     Biso  1.000  Fe
   Fe-2     1.0    0.28563      0.25000      0.97592     Biso  1.000  Fe
   Fe-3     1.0    0.71415      0.75000      0.02357     Biso  1.000  Fe
   Fe-4     1.0    0.78577      0.25000      0.52369     Biso  1.000  Fe
   Na-5     1.0    0.00004      0.00008      0.00002     Biso  1.000  Na
   Na-6     1.0    0.00004      0.49992      0.00002     Biso  1.000  Na
   Na-7     1.0    0.50006      0.00007      0.49994     Biso  1.000  Na
   Na-8     1.0    0.50006      0.49993      0.49994     Biso  1.000  Na
   O-9      1.0    0.03499      0.75000      0.66794     Biso  1.000  O
   O-10     1.0    0.11116      0.25000      0.74093     Biso  1.000  O
   O-11     1.0    0.17503      0.05322      0.30257     Biso  1.000  O
   O-12     1.0    0.17503      0.44678      0.30257     Biso  1.000  O
   O-13     1.0    0.32507      0.55301      0.80292     Biso  1.000  O
   O-14     1.0    0.32507      0.94699      0.80292     Biso  1.000  O
   O-15     1.0    0.38864      0.75000      0.24119     Biso  1.000  O
   O-16     1.0    0.46515      0.25000      0.16864     Biso  1.000  O
   O-17     1.0    0.53500      0.75000      0.83192     Biso  1.000  O
   O-18     1.0    0.61127      0.25000      0.75898     Biso  1.000  O
   O-19     1.0    0.67499      0.05309      0.19738     Biso  1.000  O
   O-20     1.0    0.67499      0.44691      0.19738     Biso  1.000  O
   O-21     1.0    0.82508      0.55309      0.69732     Biso  1.000  O
   O-22     1.0    0.82508      0.94691      0.69732     Biso  1.000  O
   O-23     1.0    0.88868      0.75000      0.25884     Biso  1.000  O
   O-24     1.0    0.96504      0.25000      0.33170     Biso  1.000  O
   P-25     1.0    0.10574      0.25000      0.43283     Biso  1.000  P
   P-26     1.0    0.39419      0.75000      0.93314     Biso  1.000  P
   P-27     1.0    0.60573      0.25000      0.06706     Biso  1.000  P
   P-28     1.0    0.89426      0.75000      0.56689     Biso  1.000  P
