#\#CIF1.1
##########################################################################
#               Crystallographic Information Format file 
#               Produced by PyCifRW module
# 
#  This is a CIF file.  CIF has been adopted by the International
#  Union of Crystallography as the standard for data archiving and 
#  transmission.
#
#  For information on this file format, follow the CIF links at
#  http://www.iucr.org
##########################################################################

data_TiO2
_symmetry_space_group_name_H-M          'P 1'
_cell_length_a                          7.78850568187
_cell_length_b                          9.6173435
_cell_length_c                          7.78850568187
_cell_angle_alpha                       90.0
_cell_angle_beta                        99.727212828
_cell_angle_gamma                       90.0
_chemical_name_systematic               'Generated by pymatgen'
_symmetry_Int_Tables_number             1
_chemical_formula_structural            TiO2
_chemical_formula_sum                   'Ti16 O32'
_cell_volume                            575.008661079
_cell_formula_units_Z                   16
loop_
  _symmetry_equiv_pos_site_id
  _symmetry_equiv_pos_as_xyz
   1  'x, y, z'
 
loop_
  _atom_site_type_symbol
  _atom_site_label
  _atom_site_symmetry_multiplicity
  _atom_site_fract_x
  _atom_site_fract_y
  _atom_site_fract_z
  _atom_site_attached_hydrogens
  _atom_site_B_iso_or_equiv
  _atom_site_occupancy
   O  O1  1  0.147954  0.225828  0.025945  0  .  1
   O  O2  1  0.033668  0.965329  0.159470  0  .  1
   O  O3  1  0.090530  0.465329  0.216332  0  .  1
   O  O4  1  0.224055  0.725828  0.102046  0  .  1
   O  O5  1  0.530748  0.283637  0.155748  0  .  1
   O  O6  1  0.272805  0.272331  0.396510  0  .  1
   O  O7  1  0.024789  0.271739  0.649789  0  .  1
   O  O8  1  0.160961  0.534397  0.537185  0  .  1
   O  O9  1  0.658824  0.535012  0.041469  0  .  1
   O  O10  1  0.416469  0.535012  0.283824  0  .  1
   O  O11  1  0.464039  0.034397  0.337815  0  .  1
   O  O12  1  0.208531  0.035012  0.591176  0  .  1
   O  O13  1  0.712815  0.034397  0.089039  0  .  1
   O  O14  1  0.600211  0.771739  0.225211  0  .  1
   O  O15  1  0.352195  0.772331  0.478490  0  .  1
   O  O16  1  0.094252  0.783637  0.719252  0  .  1
   O  O17  1  0.896193  0.228374  0.271188  0  .  1
   O  O18  1  0.646188  0.228374  0.521193  0  .  1
   O  O19  1  0.400945  0.225828  0.772954  0  .  1
   O  O20  1  0.534470  0.965329  0.658668  0  .  1
   O  O21  1  0.289393  0.965285  0.914393  0  .  1
   O  O22  1  0.786424  0.963692  0.411424  0  .  1
   O  O23  1  0.591332  0.465329  0.715530  0  .  1
   O  O24  1  0.335607  0.465285  0.960607  0  .  1
   O  O25  1  0.838576  0.463692  0.463576  0  .  1
   O  O26  1  0.728807  0.728374  0.603812  0  .  1
   O  O27  1  0.477046  0.725828  0.849055  0  .  1
   O  O28  1  0.978812  0.728374  0.353807  0  .  1
   O  O29  1  0.771510  0.272331  0.897805  0  .  1
   O  O30  1  0.912185  0.534397  0.785961  0  .  1
   O  O31  1  0.966176  0.035012  0.833531  0  .  1
   O  O32  1  0.853490  0.772331  0.977195  0  .  1
   Ti  Ti33  1  0.288196  0.364855  0.165921  0  .  1
   Ti  Ti34  1  0.047706  0.356595  0.421409  0  .  1
   Ti  Ti35  1  0.444807  0.643961  0.069807  0  .  1
   Ti  Ti36  1  0.208536  0.636343  0.335508  0  .  1
   Ti  Ti37  1  0.665329  0.135747  0.290329  0  .  1
   Ti  Ti38  1  0.914492  0.136343  0.041464  0  .  1
   Ti  Ti39  1  0.416464  0.136343  0.539492  0  .  1
   Ti  Ti40  1  0.180193  0.143961  0.805193  0  .  1
   Ti  Ti41  1  0.828591  0.856595  0.202294  0  .  1
   Ti  Ti42  1  0.336804  0.864855  0.709079  0  .  1
   Ti  Ti43  1  0.084079  0.864855  0.961804  0  .  1
   Ti  Ti44  1  0.577294  0.856595  0.453591  0  .  1
   Ti  Ti45  1  0.796409  0.356595  0.672706  0  .  1
   Ti  Ti46  1  0.540921  0.364855  0.913196  0  .  1
   Ti  Ti47  1  0.959671  0.635747  0.584671  0  .  1
   Ti  Ti48  1  0.710508  0.636343  0.833536  0  .  1
 
